*SRC=BC817-40;DI_BC817-40;BJTs NPN; Si;  45.0V  0.800A  220MHz   Diodes
Inc. BJTs
.MODEL DI_BC817-40  NPN (IS=4.04n NF=1.00 BF=822 VAF=121
+ IKF=0.273 ISE=2.86n NE=2.00 BR=4.00 NR=1.00
+ VAR=20.0 IKR=0.675 RE=0.227 RB=0.907 RC=90.7m
+ XTB=1.5 CJE=107p VJE=1.10 MJE=0.500 CJC=34.7p VJC=0.300 MJC=0.300 
+ TF=651p TR=108n EG=1.12 )